Circuit: * C:\Users\User\Documents\Module 3\FINAL\ampmod3\CCC_outputbuffer.asc

Direct Newton iteration for .op point succeeded.

Date: Tue Mar 03 13:31:12 2020
Total elapsed time: 0.145 seconds.

tnom = 27
temp = 27
method = modified trap
totiter = 2116
traniter = 2109
tranpoints = 1046
accept = 1045
rejected = 1
matrix size = 11
fillins = 1
solver = Normal
Matrix Compiler1: 744 bytes object code size  0.8/0.3/[0.1]
Matrix Compiler2: off  [0.3]/0.4/1.0

