Circuit: * C:\Users\User\Documents\Module 3\FINAL\ampmod3\CCC_inputbuffer.asc

Direct Newton iteration for .op point succeeded.

Date: Wed Mar 04 13:02:44 2020
Total elapsed time: 0.535 seconds.

tnom = 27
temp = 27
method = modified trap
totiter = 95765
traniter = 95758
tranpoints = 42881
accept = 27328
rejected = 15553
matrix size = 10
fillins = 0
solver = Normal
Matrix Compiler1: 480 bytes object code size  0.6/0.2/[0.1]
Matrix Compiler2: off  [0.2]/0.4/0.3

