Circuit: * C:\Users\User\Documents\Module 3\FINAL\ampmod3\CCC_outputbuffer.asc

WARNING: Node NC_01 is floating.

WARNING: Less than two connections to node NC_01.  This node is used by C1.
Direct Newton iteration for .op point succeeded.

Date: Wed Mar 04 09:54:42 2020
Total elapsed time: 0.264 seconds.

tnom = 27
temp = 27
method = modified trap
totiter = 7770
traniter = 7762
tranpoints = 3882
accept = 2418
rejected = 1464
matrix size = 10
fillins = 0
solver = Normal
Matrix Compiler1: 542 bytes object code size  0.7/0.3/[0.2]
Matrix Compiler2: off  [0.2]/0.4/0.3

