Circuit: * C:\Users\User\Documents\Module 3\FINAL\ampmod3\CCC_outputbuffer.asc

Direct Newton iteration for .op point succeeded.

Date: Tue Mar 03 14:33:38 2020
Total elapsed time: 0.813 seconds.

tnom = 27
temp = 27
method = modified trap
totiter = 192206
traniter = 192196
tranpoints = 63875
accept = 41961
rejected = 21914
matrix size = 9
fillins = 0
solver = Normal
Matrix Compiler1: 528 bytes object code size  0.7/0.2/[0.1]
Matrix Compiler2: off  [0.2]/0.4/0.3

